smallcase.txt
 08/19/93 UW ARCHIVE           100.0  1962 W IEEE 14 Bus Test Case
BUS DATA FOLLOWS                            14 ITEMS
   1 Bus 1     HV  1  1  3 1.060    0.0      0.0      0.0    240.6   -16.9     0.0  1.060     0.0     0.0   0.0    0.0        0
   2 Bus 2     HV  1  1  2 1.045  -4.98      7.7     12.7     40.0    42.4     0.0  1.045    50.0   -40.0   0.0    0.0        0
   3 Bus 4     HV  1  1  0 1.012 -10.33     47.8     03.9      0.0     0.0     0.0  0.0       0.0     0.0   0.0    0.0        0
   4 Bus 5     HV  1  1  0 1.013  -8.78      7.6      1.6      0.0     0.0     0.0  0.0       0.0     0.0   0.0    0.0        0
   5 Bus 6     LV  1  1  2 1.070 -14.22     11.2      7.5      0.0    12.2     0.0  1.070    24.0    -6.0   0.0    0.0        0
   6 Bus 7     ZV  1  1  0 1.050 -13.37      0.0      0.0      0.0     0.0     0.0  0.0       0.0     0.0   0.0    0.0        0
   7 Bus 9     LV  1  1  0 1.042 -14.94     29.5     26.6      0.0     0.0     0.0  0.0       0.0     0.0   0.0    0.19       0
-999
BRANCH DATA FOLLOWS                         20 ITEMS
   1    2  1  1 1 0  0.01938   0.05917     0.0528     0     0     0    0 0  0.0       0.0 0.0    0.0     0.0    0.0   0.0
   1    4  1  1 1 0  0.05403   0.22304     0.0492     0     0     0    0 0  0.0       0.0 0.0    0.0     0.0    0.0   0.0
   2    3  1  1 1 0  0.05811   0.17632     0.0340     0     0     0    0 0  0.0       0.0 0.0    0.0     0.0    0.0   0.0
   2    4  1  1 1 0  0.05695   0.17388     0.0346     0     0     0    0 0  0.0       0.0 0.0    0.0     0.0    0.0   0.0
   3    4  1  1 1 0  0.01335   0.06211     0.0        0     0     0    0 0  0.0       0.0 0.0    0.0     0.0    0.0   0.0
   3    6  1  1 1 0  0.0       0.10912     0.0        0     0     0    0 0  0.978     0.0 0.0    0.0     0.0    0.0   0.0
   3    7  1  1 1 0  0.0       0.53618     0.0        0     0     0    0 0  0.969     0.0 0.0    0.0     0.0    0.0   0.0
   4    5  1  1 1 0  0.0       0.25202     0.0        0     0     0    0 0  0.932     0.0 0.0    0.0     0.0    0.0   0.0
   6    7  1  1 1 0  0.0       0.11001     0.0        0     0     0    0 0  0.0       0.0 0.0    0.0     0.0    0.0   0.0
-999
LOSS ZONES FOLLOWS                     1 ITEMS
  1 IEEE 14 BUS
-99
INTERCHANGE DATA FOLLOWS                 1 ITEMS
 1    2 Bus 2     HV    0.0  999.99  IEEE14  IEEE 14 Bus Test Case
-9
TIE LINES FOLLOWS                     0 ITEMS
-999
END OF DATA